* CDL Netlist generated by OpenROAD

*.BUSDELIMITER [

.SUBCKT fft_8point_top clk in_flat[0] in_flat[100] in_flat[101]
+ in_flat[102] in_flat[103] in_flat[104] in_flat[105] in_flat[106]
+ in_flat[107] in_flat[108] in_flat[109] in_flat[10] in_flat[110]
+ in_flat[111] in_flat[112] in_flat[113] in_flat[114] in_flat[115]
+ in_flat[116] in_flat[117] in_flat[118] in_flat[119] in_flat[11]
+ in_flat[120] in_flat[121] in_flat[122] in_flat[123] in_flat[124]
+ in_flat[125] in_flat[126] in_flat[127] in_flat[12] in_flat[13]
+ in_flat[14] in_flat[15] in_flat[16] in_flat[17] in_flat[18]
+ in_flat[19] in_flat[1] in_flat[20] in_flat[21] in_flat[22]
+ in_flat[23] in_flat[24] in_flat[25] in_flat[26] in_flat[27]
+ in_flat[28] in_flat[29] in_flat[2] in_flat[30] in_flat[31]
+ in_flat[32] in_flat[33] in_flat[34] in_flat[35] in_flat[36]
+ in_flat[37] in_flat[38] in_flat[39] in_flat[3] in_flat[40]
+ in_flat[41] in_flat[42] in_flat[43] in_flat[44] in_flat[45]
+ in_flat[46] in_flat[47] in_flat[48] in_flat[49] in_flat[4]
+ in_flat[50] in_flat[51] in_flat[52] in_flat[53] in_flat[54]
+ in_flat[55] in_flat[56] in_flat[57] in_flat[58] in_flat[59]
+ in_flat[5] in_flat[60] in_flat[61] in_flat[62] in_flat[63]
+ in_flat[64] in_flat[65] in_flat[66] in_flat[67] in_flat[68]
+ in_flat[69] in_flat[6] in_flat[70] in_flat[71] in_flat[72]
+ in_flat[73] in_flat[74] in_flat[75] in_flat[76] in_flat[77]
+ in_flat[78] in_flat[79] in_flat[7] in_flat[80] in_flat[81]
+ in_flat[82] in_flat[83] in_flat[84] in_flat[85] in_flat[86]
+ in_flat[87] in_flat[88] in_flat[89] in_flat[8] in_flat[90]
+ in_flat[91] in_flat[92] in_flat[93] in_flat[94] in_flat[95]
+ in_flat[96] in_flat[97] in_flat[98] in_flat[99] in_flat[9]
+ in_valid out_flat[0] out_flat[100] out_flat[101] out_flat[102]
+ out_flat[103] out_flat[104] out_flat[105] out_flat[106] out_flat[107]
+ out_flat[108] out_flat[109] out_flat[10] out_flat[110] out_flat[111]
+ out_flat[112] out_flat[113] out_flat[114] out_flat[115] out_flat[116]
+ out_flat[117] out_flat[118] out_flat[119] out_flat[11] out_flat[120]
+ out_flat[121] out_flat[122] out_flat[123] out_flat[124] out_flat[125]
+ out_flat[126] out_flat[127] out_flat[128] out_flat[129] out_flat[12]
+ out_flat[130] out_flat[131] out_flat[132] out_flat[133] out_flat[134]
+ out_flat[135] out_flat[136] out_flat[137] out_flat[138] out_flat[139]
+ out_flat[13] out_flat[140] out_flat[141] out_flat[142] out_flat[143]
+ out_flat[144] out_flat[145] out_flat[146] out_flat[147] out_flat[148]
+ out_flat[149] out_flat[14] out_flat[150] out_flat[151] out_flat[152]
+ out_flat[153] out_flat[154] out_flat[155] out_flat[156] out_flat[157]
+ out_flat[158] out_flat[159] out_flat[15] out_flat[160] out_flat[161]
+ out_flat[162] out_flat[163] out_flat[164] out_flat[165] out_flat[166]
+ out_flat[167] out_flat[168] out_flat[169] out_flat[16] out_flat[170]
+ out_flat[171] out_flat[172] out_flat[173] out_flat[174] out_flat[175]
+ out_flat[176] out_flat[177] out_flat[178] out_flat[179] out_flat[17]
+ out_flat[180] out_flat[181] out_flat[182] out_flat[183] out_flat[184]
+ out_flat[185] out_flat[186] out_flat[187] out_flat[188] out_flat[189]
+ out_flat[18] out_flat[190] out_flat[191] out_flat[192] out_flat[193]
+ out_flat[194] out_flat[195] out_flat[196] out_flat[197] out_flat[198]
+ out_flat[199] out_flat[19] out_flat[1] out_flat[200] out_flat[201]
+ out_flat[202] out_flat[203] out_flat[204] out_flat[205] out_flat[206]
+ out_flat[207] out_flat[208] out_flat[209] out_flat[20] out_flat[210]
+ out_flat[211] out_flat[212] out_flat[213] out_flat[214] out_flat[215]
+ out_flat[216] out_flat[217] out_flat[218] out_flat[219] out_flat[21]
+ out_flat[220] out_flat[221] out_flat[222] out_flat[223] out_flat[224]
+ out_flat[225] out_flat[226] out_flat[227] out_flat[228] out_flat[229]
+ out_flat[22] out_flat[230] out_flat[231] out_flat[232] out_flat[233]
+ out_flat[234] out_flat[235] out_flat[236] out_flat[237] out_flat[238]
+ out_flat[239] out_flat[23] out_flat[240] out_flat[241] out_flat[242]
+ out_flat[243] out_flat[244] out_flat[245] out_flat[246] out_flat[247]
+ out_flat[248] out_flat[249] out_flat[24] out_flat[250] out_flat[251]
+ out_flat[252] out_flat[253] out_flat[254] out_flat[255] out_flat[25]
+ out_flat[26] out_flat[27] out_flat[28] out_flat[29] out_flat[2]
+ out_flat[30] out_flat[31] out_flat[32] out_flat[33] out_flat[34]
+ out_flat[35] out_flat[36] out_flat[37] out_flat[38] out_flat[39]
+ out_flat[3] out_flat[40] out_flat[41] out_flat[42] out_flat[43]
+ out_flat[44] out_flat[45] out_flat[46] out_flat[47] out_flat[48]
+ out_flat[49] out_flat[4] out_flat[50] out_flat[51] out_flat[52]
+ out_flat[53] out_flat[54] out_flat[55] out_flat[56] out_flat[57]
+ out_flat[58] out_flat[59] out_flat[5] out_flat[60] out_flat[61]
+ out_flat[62] out_flat[63] out_flat[64] out_flat[65] out_flat[66]
+ out_flat[67] out_flat[68] out_flat[69] out_flat[6] out_flat[70]
+ out_flat[71] out_flat[72] out_flat[73] out_flat[74] out_flat[75]
+ out_flat[76] out_flat[77] out_flat[78] out_flat[79] out_flat[7]
+ out_flat[80] out_flat[81] out_flat[82] out_flat[83] out_flat[84]
+ out_flat[85] out_flat[86] out_flat[87] out_flat[88] out_flat[89]
+ out_flat[8] out_flat[90] out_flat[91] out_flat[92] out_flat[93]
+ out_flat[94] out_flat[95] out_flat[96] out_flat[97] out_flat[98]
+ out_flat[99] out_flat[9] out_valid rst_n VSS VDD
X_06051_ stage3_in_r\[48\] VSS VSS VDD VDD _01126_ sky130_fd_sc_hd__inv_1
Xinput142 in_flat[83] VSS VSS VDD VDD net141 sky130_fd_sc_hd__clkdlybuf4s50_1
X_06053_ net432 VSS VSS VDD VDD _00044_ sky130_fd_sc_hd__clkinv_1
Xinput141 in_flat[82] VSS VSS VDD VDD net140 sky130_fd_sc_hd__clkdlybuf4s50_1
X_06055_ _00934_ net432 VSS VSS VDD VDD _00006_ sky130_fd_sc_hd__xnor2_1
Xinput140 in_flat[81] VSS VSS VDD VDD net139 sky130_fd_sc_hd__clkdlybuf4s50_1
X_06057_ _01266_ VSS VSS VDD VDD _02890_ sky130_fd_sc_hd__inv_1
X_06058_ _01281_ _01273_ _01272_ VSS VSS VDD VDD _02891_ sky130_fd_sc_hd__a21o_1
X_06059_ _01269_ _02891_ _01268_ VSS VSS VDD VDD _02892_ sky130_fd_sc_hd__a21oi_1
X_06060_ _01250_ _01252_ _01258_ _01249_ VSS VSS VDD VDD _02893_
+ sky130_fd_sc_hd__a211oi_1
X_06061_ _01265_ VSS VSS VDD VDD _02894_ sky130_fd_sc_hd__inv_1
X_06062_ _02890_ _02892_ _02893_ _02894_ VSS VSS VDD VDD _02895_
+ sky130_fd_sc_hd__o211a_1
X_06063_ _01259_ _01258_ _01253_ VSS VSS VDD VDD _02896_ sky130_fd_sc_hd__o21ai_0
X_06064_ _01252_ _02896_ VSS VSS VDD VDD _02897_ sky130_fd_sc_hd__nand2b_1
X_06065_ _01250_ _02897_ _01249_ VSS VSS VDD VDD _02898_ sky130_fd_sc_hd__a21oi_1
X_06066_ _01232_ _01242_ VSS VSS VDD VDD _02899_ sky130_fd_sc_hd__nand2_1
X_06067_ _01232_ _01241_ _01231_ VSS VSS VDD VDD _02900_ sky130_fd_sc_hd__a21oi_1
X_06068_ _02895_ _02898_ _02899_ _02900_ VSS VSS VDD VDD _02901_
+ sky130_fd_sc_hd__o31ai_2
X_06069_ _01238_ _01227_ _01237_ VSS VSS VDD VDD _02902_ sky130_fd_sc_hd__a21o_1
X_06070_ _01238_ _01228_ _02901_ _02902_ VSS VSS VDD VDD _02903_
+ sky130_fd_sc_hd__a31oi_1
X_06071_ _01218_ _02903_ VSS VSS VDD VDD _01595_ sky130_fd_sc_hd__xnor2_1
X_06072_ _01595_ VSS VSS VDD VDD _01598_ sky130_fd_sc_hd__inv_1
Xinput139 in_flat[80] VSS VSS VDD VDD net138 sky130_fd_sc_hd__clkdlybuf4s50_1
X_06074_ _01183_ _01188_ _01182_ VSS VSS VDD VDD _02905_ sky130_fd_sc_hd__a21o_1
X_06075_ _01195_ VSS VSS VDD VDD _02906_ sky130_fd_sc_hd__inv_1
X_06076_ _00266_ _01199_ VSS VSS VDD VDD _02907_ sky130_fd_sc_hd__nor2b_1
X_06077_ _01198_ _02907_ _01196_ VSS VSS VDD VDD _02908_ sky130_fd_sc_hd__o21ai_1
X_06078_ _01183_ _01189_ VSS VSS VDD VDD _02909_ sky130_fd_sc_hd__nand2_1
X_06079_ _02906_ _02908_ _02909_ VSS VSS VDD VDD _02910_ sky130_fd_sc_hd__a21oi_1
X_06080_ _01173_ _01180_ _02905_ _02910_ VSS VSS VDD VDD _02911_
+ sky130_fd_sc_hd__nor4_2
X_06081_ _01181_ _01180_ _01174_ VSS VSS VDD VDD _02912_ sky130_fd_sc_hd__o21ai_0
X_06082_ _01173_ _02912_ VSS VSS VDD VDD _02913_ sky130_fd_sc_hd__nand2b_1
X_06083_ _02911_ _02913_ VSS VSS VDD VDD _02914_ sky130_fd_sc_hd__nand2b_4
X_06084_ _01164_ _01159_ VSS VSS VDD VDD _02915_ sky130_fd_sc_hd__nand2_1
X_06085_ _01159_ _01163_ _01158_ VSS VSS VDD VDD _02916_ sky130_fd_sc_hd__a21oi_1
X_06086_ _02914_ _02915_ _02916_ VSS VSS VDD VDD _02917_ sky130_fd_sc_hd__o21ai_0
X_06087_ _01170_ _02917_ VSS VSS VDD VDD _01275_ sky130_fd_sc_hd__xor2_1
X_06088_ _01241_ VSS VSS VDD VDD _02918_ sky130_fd_sc_hd__inv_1
X_06089_ _01253_ _01252_ _01250_ VSS VSS VDD VDD _02919_ sky130_fd_sc_hd__o21a_1
X_06090_ _00271_ _01269_ VSS VSS VDD VDD _02920_ sky130_fd_sc_hd__nor2b_1
X_06091_ _01268_ _02920_ _01266_ VSS VSS VDD VDD _02921_ sky130_fd_sc_hd__o21ai_1
X_06092_ _02894_ _02921_ _01259_ VSS VSS VDD VDD _02922_ sky130_fd_sc_hd__a21boi_1
X_06093_ _01249_ _01252_ _01258_ VSS VSS VDD VDD _02923_ sky130_fd_sc_hd__or3_1
X_06094_ _01249_ _02919_ _02922_ _02923_ _01242_ VSS VSS VDD
+ VDD _02924_ sky130_fd_sc_hd__o221ai_2
X_06095_ _01232_ VSS VSS VDD VDD _02925_ sky130_fd_sc_hd__inv_1
X_06096_ _02918_ _02924_ _02925_ VSS VSS VDD VDD _02926_ sky130_fd_sc_hd__a21oi_1
X_06097_ _01231_ _02926_ _01228_ VSS VSS VDD VDD _02927_ sky130_fd_sc_hd__o21ai_0
X_06098_ _01227_ _02927_ VSS VSS VDD VDD _02928_ sky130_fd_sc_hd__nor2b_1
X_06099_ _01238_ _02928_ VSS VSS VDD VDD _01274_ sky130_fd_sc_hd__xnor2_1
X_06100_ _01274_ VSS VSS VDD VDD _01278_ sky130_fd_sc_hd__inv_1
X_06101_ _01164_ _01174_ VSS VSS VDD VDD _02929_ sky130_fd_sc_hd__and2_1
X_06102_ _01181_ _01182_ _01180_ VSS VSS VDD VDD _02930_ sky130_fd_sc_hd__a21o_1
X_06103_ _01159_ _02929_ _02930_ VSS VSS VDD VDD _02931_ sky130_fd_sc_hd__and3_1
X_06104_ _01189_ _01196_ VSS VSS VDD VDD _02932_ sky130_fd_sc_hd__and2_1
X_06105_ _01189_ _01195_ _01198_ _02932_ _01188_ VSS VSS VDD
+ VDD _02933_ sky130_fd_sc_hd__a221oi_2
X_06106_ _01280_ _01203_ _01202_ VSS VSS VDD VDD _02934_ sky130_fd_sc_hd__a21o_1
X_06107_ _01199_ _02932_ _02934_ VSS VSS VDD VDD _02935_ sky130_fd_sc_hd__nand3_1
X_06108_ _01183_ _01159_ _01181_ _02929_ VSS VSS VDD VDD _02936_
+ sky130_fd_sc_hd__nand4_1
X_06109_ _02933_ _02935_ _02936_ VSS VSS VDD VDD _02937_ sky130_fd_sc_hd__a21oi_2
X_06110_ _02931_ _02937_ VSS VSS VDD VDD _02938_ sky130_fd_sc_hd__nor2_1
X_06111_ _02933_ _02935_ VSS VSS VDD VDD _02939_ sky130_fd_sc_hd__nand2_1
X_06112_ _01164_ _01173_ _01163_ VSS VSS VDD VDD _02940_ sky130_fd_sc_hd__a21oi_1
X_06113_ _02930_ _02940_ VSS VSS VDD VDD _02941_ sky130_fd_sc_hd__nand2b_1
X_06114_ _01183_ _01181_ _02941_ _01159_ VSS VSS VDD VDD _02942_
+ sky130_fd_sc_hd__a211o_1
X_06115_ _01159_ _02929_ VSS VSS VDD VDD _02943_ sky130_fd_sc_hd__nor2_1
X_06116_ _02940_ _01159_ VSS VSS VDD VDD _02944_ sky130_fd_sc_hd__nor2b_1
X_06117_ _02940_ _02943_ _02944_ VSS VSS VDD VDD _02945_ sky130_fd_sc_hd__a21oi_1
X_06118_ _01159_ _02939_ _02941_ _02942_ _02945_ VSS VSS VDD
+ VDD _02946_ sky130_fd_sc_hd__o311a_1
X_06119_ _02938_ _02946_ VSS VSS VDD VDD _01601_ sky130_fd_sc_hd__and2_1
X_06120_ _01228_ _02901_ VSS VSS VDD VDD _01600_ sky130_fd_sc_hd__xor2_2
X_06121_ _01600_ VSS VSS VDD VDD _01604_ sky130_fd_sc_hd__inv_1
X_06122_ _02918_ _02924_ VSS VSS VDD VDD _02947_ sky130_fd_sc_hd__and2_1
X_06123_ _01232_ _02947_ VSS VSS VDD VDD _01606_ sky130_fd_sc_hd__xnor2_1
X_06124_ _01606_ VSS VSS VDD VDD _01610_ sky130_fd_sc_hd__inv_1
X_06125_ _02895_ _02898_ VSS VSS VDD VDD _02948_ sky130_fd_sc_hd__nor2_1
X_06126_ _01242_ _02948_ VSS VSS VDD VDD _01612_ sky130_fd_sc_hd__xor2_1
X_06127_ _01612_ VSS VSS VDD VDD _01616_ sky130_fd_sc_hd__inv_1
X_06128_ _01258_ _02922_ _01253_ VSS VSS VDD VDD _02949_ sky130_fd_sc_hd__o21ai_0
X_06129_ _01252_ _02949_ VSS VSS VDD VDD _02950_ sky130_fd_sc_hd__nand2b_1
X_06130_ _01250_ _02950_ VSS VSS VDD VDD _01618_ sky130_fd_sc_hd__xor2_1
X_06131_ _01618_ VSS VSS VDD VDD _01622_ sky130_fd_sc_hd__inv_1
X_06132_ _02890_ _02892_ _02894_ VSS VSS VDD VDD _02951_ sky130_fd_sc_hd__o21ai_0
X_06133_ _01259_ _02951_ _01258_ VSS VSS VDD VDD _02952_ sky130_fd_sc_hd__a21oi_1
X_06134_ _01253_ _02952_ VSS VSS VDD VDD _01624_ sky130_fd_sc_hd__xnor2_1
X_06135_ _01624_ VSS VSS VDD VDD _01628_ sky130_fd_sc_hd__inv_1
X_06136_ _02894_ _02921_ VSS VSS VDD VDD _02953_ sky130_fd_sc_hd__nand2_1
X_06137_ _01259_ _02953_ VSS VSS VDD VDD _02954_ sky130_fd_sc_hd__nor2_1
X_06138_ _02922_ _02954_ VSS VSS VDD VDD _01630_ sky130_fd_sc_hd__nor2_1
X_06139_ _01630_ VSS VSS VDD VDD _01634_ sky130_fd_sc_hd__inv_1
X_06140_ _01266_ _02892_ VSS VSS VDD VDD _01636_ sky130_fd_sc_hd__xnor2_1
X_06141_ _01636_ VSS VSS VDD VDD _01640_ sky130_fd_sc_hd__inv_1
X_06142_ _00271_ _01269_ VSS VSS VDD VDD _01642_ sky130_fd_sc_hd__xnor2_1
X_06143_ _01642_ VSS VSS VDD VDD _01646_ sky130_fd_sc_hd__inv_1
X_06144_ _01605_ VSS VSS VDD VDD _02955_ sky130_fd_sc_hd__inv_1
X_06145_ _01601_ _01600_ VSS VSS VDD VDD _02956_ sky130_fd_sc_hd__xor2_1
X_06146_ _01629_ _01627_ VSS VSS VDD VDD _02957_ sky130_fd_sc_hd__nor2b_1
X_06147_ _01615_ VSS VSS VDD VDD _02958_ sky130_fd_sc_hd__inv_1
X_06148_ _02958_ _01623_ _01617_ VSS VSS VDD VDD _02959_ sky130_fd_sc_hd__a21oi_1
X_06149_ _01609_ _02959_ VSS VSS VDD VDD _02960_ sky130_fd_sc_hd__nor2_1
X_06150_ _01605_ _01611_ _02960_ VSS VSS VDD VDD _02961_ sky130_fd_sc_hd__nor3_1
X_06151_ _01609_ _01615_ _01621_ _02957_ _02961_ VSS VSS VDD
+ VDD _02962_ sky130_fd_sc_hd__o41ai_2
X_06152_ _02962_ VSS VSS VDD VDD _02963_ sky130_fd_sc_hd__inv_1
X_06153_ _01645_ VSS VSS VDD VDD _02964_ sky130_fd_sc_hd__inv_1
X_06154_ _01666_ VSS VSS VDD VDD _02965_ sky130_fd_sc_hd__inv_1
X_06155_ net445 stage3_in_r\[0\] VSS VSS VDD VDD _02966_ sky130_fd_sc_hd__nand2b_1
X_06156_ _02965_ _02966_ _01668_ VSS VSS VDD VDD _02967_ sky130_fd_sc_hd__a21oi_1
X_06157_ _01662_ _02967_ _01664_ VSS VSS VDD VDD _02968_ sky130_fd_sc_hd__o21bai_1
X_06158_ _01651_ _01654_ _01658_ VSS VSS VDD VDD _02969_ sky130_fd_sc_hd__nor3_1
X_06159_ _01654_ VSS VSS VDD VDD _02970_ sky130_fd_sc_hd__inv_1
X_06160_ _02970_ _01660_ _01656_ VSS VSS VDD VDD _02971_ sky130_fd_sc_hd__a21oi_1
X_06161_ _01651_ _02971_ VSS VSS VDD VDD _02972_ sky130_fd_sc_hd__nor2_1
X_06162_ _02968_ _02969_ _02972_ _01652_ VSS VSS VDD VDD _02973_
+ sky130_fd_sc_hd__a211o_1
X_06163_ _02964_ _02973_ _01647_ VSS VSS VDD VDD _02974_ sky130_fd_sc_hd__a21oi_1
X_06164_ _01633_ _01641_ VSS VSS VDD VDD _02975_ sky130_fd_sc_hd__nor2b_1
X_06165_ _01629_ _01635_ _02975_ VSS VSS VDD VDD _02976_ sky130_fd_sc_hd__nor3_1
X_06166_ _01633_ _01639_ _02974_ _02976_ _02961_ VSS VSS VDD
+ VDD _02977_ sky130_fd_sc_hd__o311a_1
X_06167_ _02955_ _02956_ _02963_ _01277_ _02977_ VSS VSS VDD
+ VDD _02978_ sky130_fd_sc_hd__a2111oi_2
X_06168_ _01279_ _02978_ VSS VSS VDD VDD _02979_ sky130_fd_sc_hd__nor2_1
X_06169_ _02931_ _02944_ VSS VSS VDD VDD _02980_ sky130_fd_sc_hd__nor2_1
X_06170_ _01147_ VSS VSS VDD VDD _02981_ sky130_fd_sc_hd__inv_1
X_06171_ _02981_ _01158_ _01169_ VSS VSS VDD VDD _02982_ sky130_fd_sc_hd__nor3_1
X_06172_ _02937_ _02980_ _02982_ VSS VSS VDD VDD _02983_ sky130_fd_sc_hd__nand3b_1
X_06173_ _01147_ _01170_ VSS VSS VDD VDD _02984_ sky130_fd_sc_hd__nor2b_1
X_06174_ _02931_ _02937_ _02944_ _02984_ VSS VSS VDD VDD _02985_
+ sky130_fd_sc_hd__o31ai_1
X_06175_ _01170_ _02981_ _01169_ VSS VSS VDD VDD _02986_ sky130_fd_sc_hd__nor3_1
X_06176_ _02981_ _01169_ _02984_ _01158_ _02986_ VSS VSS VDD
+ VDD _02987_ sky130_fd_sc_hd__a221oi_1
X_06177_ _02983_ _02985_ _02987_ VSS VSS VDD VDD _01594_ sky130_fd_sc_hd__nand3_1
X_06178_ _01595_ _01594_ VSS VSS VDD VDD _02988_ sky130_fd_sc_hd__xor2_1
X_06179_ _02979_ _02988_ VSS VSS VDD VDD _01118_ sky130_fd_sc_hd__xor2_1
X_06180_ _01118_ VSS VSS VDD VDD _01121_ sky130_fd_sc_hd__inv_1
X_06181_ _01492_ _01493_ VSS VSS VDD VDD _01285_ sky130_fd_sc_hd__or2_2
X_06182_ _01285_ VSS VSS VDD VDD _01335_ sky130_fd_sc_hd__inv_1
X_06183_ _00288_ VSS VSS VDD VDD _00285_ sky130_fd_sc_hd__inv_1
Xinput138 in_flat[7] VSS VSS VDD VDD net137 sky130_fd_sc_hd__clkdlybuf4s50_1
Xinput137 in_flat[79] VSS VSS VDD VDD net136 sky130_fd_sc_hd__clkdlybuf4s50_1
X_06186_ _01523_ net459 VSS VSS VDD VDD _00292_ sky130_fd_sc_hd__xor2_1
X_06187_ _00304_ VSS VSS VDD VDD _00301_ sky130_fd_sc_hd__inv_1
X_06188_ _01218_ _02902_ _01217_ VSS VSS VDD VDD _02991_ sky130_fd_sc_hd__a21oi_1
Xinput136 in_flat[78] VSS VSS VDD VDD net135 sky130_fd_sc_hd__clkdlybuf4s50_1
X_06190_ _01297_ _01231_ VSS VSS VDD VDD _02993_ sky130_fd_sc_hd__nor2_1
X_06191_ _02991_ _02993_ VSS VSS VDD VDD _02994_ sky130_fd_sc_hd__nand2_1
X_06192_ _01238_ _01218_ _01228_ VSS VSS VDD VDD _02995_ sky130_fd_sc_hd__and3_4
X_06193_ _01297_ VSS VSS VDD VDD _02996_ sky130_fd_sc_hd__inv_1
X_06194_ _01297_ _02995_ VSS VSS VDD VDD _02997_ sky130_fd_sc_hd__nor2_1
X_06195_ _02991_ _02997_ VSS VSS VDD VDD _02998_ sky130_fd_sc_hd__nand2_1
X_06196_ _02996_ _02991_ _02998_ VSS VSS VDD VDD _02999_ sky130_fd_sc_hd__o21ai_0
X_06197_ _01297_ _01231_ _02995_ _02999_ VSS VSS VDD VDD _03000_
+ sky130_fd_sc_hd__a31oi_1
X_06198_ _01297_ _02995_ VSS VSS VDD VDD _03001_ sky130_fd_sc_hd__nand2_1
X_06199_ _02918_ _02924_ _03001_ _02925_ VSS VSS VDD VDD _03002_
+ sky130_fd_sc_hd__a211o_1
X_06200_ _02926_ _02994_ _03000_ _03002_ VSS VSS VDD VDD _01673_
+ sky130_fd_sc_hd__o211ai_1
X_06201_ _01279_ _02978_ _02988_ VSS VSS VDD VDD _03003_ sky130_fd_sc_hd__o21ba_2
X_06202_ _01599_ _03003_ VSS VSS VDD VDD _03004_ sky130_fd_sc_hd__nor2_1
Xinput135 in_flat[77] VSS VSS VDD VDD net134 sky130_fd_sc_hd__clkdlybuf4s50_1
X_06204_ _01147_ _01169_ _01146_ VSS VSS VDD VDD _03006_ sky130_fd_sc_hd__a21oi_2
X_06205_ _02916_ _03006_ VSS VSS VDD VDD _03007_ sky130_fd_sc_hd__nand2_1
X_06206_ _01290_ _03007_ VSS VSS VDD VDD _03008_ sky130_fd_sc_hd__nor2_1
X_06207_ _03006_ _01290_ VSS VSS VDD VDD _03009_ sky130_fd_sc_hd__nor2b_1
X_06208_ _01170_ _01147_ _01290_ VSS VSS VDD VDD _03010_ sky130_fd_sc_hd__a21oi_1
X_06209_ _01170_ _01147_ _01290_ VSS VSS VDD VDD _03011_ sky130_fd_sc_hd__nand3_1
X_06210_ _02916_ _03011_ VSS VSS VDD VDD _03012_ sky130_fd_sc_hd__nor2_1
X_06211_ _01290_ _03007_ _02915_ VSS VSS VDD VDD _03013_ sky130_fd_sc_hd__nor3b_1
X_06212_ _03006_ _03010_ _03012_ _03013_ VSS VSS VDD VDD _03014_
+ sky130_fd_sc_hd__a211o_1
X_06213_ _02915_ _03011_ VSS VSS VDD VDD _03015_ sky130_fd_sc_hd__nor2_1
X_06214_ _02913_ _03015_ VSS VSS VDD VDD _03016_ sky130_fd_sc_hd__nand2_1
X_06215_ net425 _03016_ VSS VSS VDD VDD _03017_ sky130_fd_sc_hd__nor2_1
X_06216_ _02914_ _03008_ _03009_ _03014_ _03017_ VSS VSS VDD
+ VDD _01669_ sky130_fd_sc_hd__a2111oi_4
X_06217_ _01673_ _01669_ VSS VSS VDD VDD _03018_ sky130_fd_sc_hd__xnor2_1
X_06218_ _03004_ _03018_ VSS VSS VDD VDD _01544_ sky130_fd_sc_hd__xor2_1
X_06219_ _01544_ VSS VSS VDD VDD _01547_ sky130_fd_sc_hd__inv_1
X_06220_ _00010_ VSS VSS VDD VDD _00046_ sky130_fd_sc_hd__inv_1
X_06221_ _00311_ _00010_ VSS VSS VDD VDD _03019_ sky130_fd_sc_hd__xor2_1
X_06222_ net431 _03019_ VSS VSS VDD VDD _01300_ sky130_fd_sc_hd__xnor2_1
X_06223_ _00319_ VSS VSS VDD VDD _00316_ sky130_fd_sc_hd__inv_1
X_06224_ _01522_ _01524_ VSS VSS VDD VDD _01313_ sky130_fd_sc_hd__or2_2
X_06225_ _01313_ VSS VSS VDD VDD _01367_ sky130_fd_sc_hd__inv_1
X_06226_ _00331_ VSS VSS VDD VDD _00328_ sky130_fd_sc_hd__inv_1
X_06227_ _01217_ _01296_ VSS VSS VDD VDD _03020_ sky130_fd_sc_hd__nor2_1
X_06228_ _01218_ _01217_ VSS VSS VDD VDD _03021_ sky130_fd_sc_hd__nor2_1
X_06229_ _02996_ _03021_ VSS VSS VDD VDD _03022_ sky130_fd_sc_hd__nor2_1
X_06230_ _01296_ _03022_ _01318_ VSS VSS VDD VDD _03023_ sky130_fd_sc_hd__o21ai_0
X_06231_ _01218_ _01297_ VSS VSS VDD VDD _03024_ sky130_fd_sc_hd__nand2_1
X_06232_ _01297_ _01217_ _01296_ VSS VSS VDD VDD _03025_ sky130_fd_sc_hd__a21oi_1
X_06233_ _01318_ VSS VSS VDD VDD _03026_ sky130_fd_sc_hd__inv_1
X_06234_ _02903_ _03024_ _03025_ _03026_ VSS VSS VDD VDD _03027_
+ sky130_fd_sc_hd__o211ai_1
X_06235_ _01318_ _02903_ _03020_ _03023_ _03027_ VSS VSS VDD
+ VDD _01676_ sky130_fd_sc_hd__a32o_1
X_06236_ _01676_ VSS VSS VDD VDD _01679_ sky130_fd_sc_hd__inv_1
X_06237_ _01290_ _01146_ _01289_ VSS VSS VDD VDD _03028_ sky130_fd_sc_hd__a21o_1
X_06238_ _01158_ _01169_ _02937_ _02980_ VSS VSS VDD VDD _03029_
+ sky130_fd_sc_hd__or4b_1
X_06239_ _01290_ _01146_ _01289_ VSS VSS VDD VDD _03030_ sky130_fd_sc_hd__a21oi_1
X_06240_ _01170_ _01169_ _01290_ _01147_ VSS VSS VDD VDD _03031_
+ sky130_fd_sc_hd__o211ai_1
X_06241_ _03030_ _03031_ VSS VSS VDD VDD _03032_ sky130_fd_sc_hd__nand2_1
X_06242_ _03028_ _03029_ _03032_ _01308_ VSS VSS VDD VDD _03033_
+ sky130_fd_sc_hd__o211ai_1
X_06243_ _01158_ _01169_ _02937_ _02980_ VSS VSS VDD VDD _03034_
+ sky130_fd_sc_hd__nor4b_2
X_06244_ _01308_ VSS VSS VDD VDD _03035_ sky130_fd_sc_hd__inv_1
X_06245_ _03031_ _03034_ _03035_ _03030_ VSS VSS VDD VDD _03036_
+ sky130_fd_sc_hd__o211ai_1
X_06246_ _03033_ _03036_ VSS VSS VDD VDD _01675_ sky130_fd_sc_hd__and2_1
X_06247_ _01676_ _01675_ VSS VSS VDD VDD _03037_ sky130_fd_sc_hd__xnor2_1
X_06248_ _03004_ _03018_ VSS VSS VDD VDD _03038_ sky130_fd_sc_hd__nor2_1
X_06249_ _01674_ _03038_ VSS VSS VDD VDD _03039_ sky130_fd_sc_hd__nor2_1
X_06250_ _03037_ _03039_ VSS VSS VDD VDD _01549_ sky130_fd_sc_hd__xnor2_2
X_06251_ _01549_ VSS VSS VDD VDD _01552_ sky130_fd_sc_hd__inv_1
X_06252_ net458 VSS VSS VDD VDD _03040_ sky130_fd_sc_hd__inv_1
X_06253_ _01277_ VSS VSS VDD VDD _03041_ sky130_fd_sc_hd__inv_1
X_06254_ _02955_ _02956_ _02977_ _02963_ VSS VSS VDD VDD _03042_
+ sky130_fd_sc_hd__a211oi_1
X_06255_ _03041_ _03042_ VSS VSS VDD VDD _03043_ sky130_fd_sc_hd__xnor2_1
X_06256_ _03040_ _03043_ VSS VSS VDD VDD _01124_ sky130_fd_sc_hd__nor2_1
X_06257_ net430 _03019_ _00276_ VSS VSS VDD VDD _00337_ sky130_fd_sc_hd__mux2_2
X_06258_ _00341_ VSS VSS VDD VDD _00338_ sky130_fd_sc_hd__inv_1
X_06259_ _00145_ VSS VSS VDD VDD _00146_ sky130_fd_sc_hd__inv_1
X_06260_ stage3_in_r\[15\] VSS VSS VDD VDD _00143_ sky130_fd_sc_hd__inv_1
X_06261_ _00145_ _00322_ VSS VSS VDD VDD _03044_ sky130_fd_sc_hd__xor2_1
X_06262_ net459 _03044_ VSS VSS VDD VDD _01326_ sky130_fd_sc_hd__xnor2_1
X_06263_ _01309_ net459 _00294_ VSS VSS VDD VDD _00347_ sky130_fd_sc_hd__mux2i_1
X_06264_ _00351_ VSS VSS VDD VDD _00348_ sky130_fd_sc_hd__inv_1
X_06265_ _03026_ _03001_ VSS VSS VDD VDD _03045_ sky130_fd_sc_hd__nor2_1
X_06266_ _01232_ _03045_ VSS VSS VDD VDD _03046_ sky130_fd_sc_hd__nand2_1
X_06267_ _01232_ _01241_ _03045_ VSS VSS VDD VDD _03047_ sky130_fd_sc_hd__nand3_1
X_06268_ _01218_ _02902_ _02995_ _01231_ _01217_ VSS VSS VDD
+ VDD _03048_ sky130_fd_sc_hd__a221oi_2
X_06269_ _02996_ _03048_ _01296_ VSS VSS VDD VDD _03049_ sky130_fd_sc_hd__o21bai_1
X_06270_ _01318_ _03049_ _01317_ VSS VSS VDD VDD _03050_ sky130_fd_sc_hd__a21oi_2
X_06271_ _02924_ _03046_ _03047_ _03050_ VSS VSS VDD VDD _03051_
+ sky130_fd_sc_hd__o211ai_2
X_06272_ _01332_ _03051_ VSS VSS VDD VDD _01682_ sky130_fd_sc_hd__xor2_1
X_06273_ _01682_ VSS VSS VDD VDD _01685_ sky130_fd_sc_hd__inv_1
X_06274_ _01289_ _01307_ _03009_ _03012_ VSS VSS VDD VDD _03052_
+ sky130_fd_sc_hd__or4_1
X_06275_ _01308_ _01307_ _03052_ VSS VSS VDD VDD _03053_ sky130_fd_sc_hd__o21ai_0
X_06276_ _03035_ net425 _03016_ _03053_ VSS VSS VDD VDD _03054_
+ sky130_fd_sc_hd__o31a_1
X_06277_ _01325_ _03054_ VSS VSS VDD VDD _01681_ sky130_fd_sc_hd__xnor2_1
X_06278_ _01682_ _01681_ VSS VSS VDD VDD _03055_ sky130_fd_sc_hd__xor2_1
X_06279_ _01674_ _03018_ VSS VSS VDD VDD _03056_ sky130_fd_sc_hd__nand2b_1
X_06280_ _01599_ _01674_ _03003_ _03037_ _03056_ VSS VSS VDD
+ VDD _03057_ sky130_fd_sc_hd__o311ai_1
X_06281_ _01680_ _03057_ VSS VSS VDD VDD _03058_ sky130_fd_sc_hd__nor2b_1
X_06282_ _03055_ _03058_ VSS VSS VDD VDD _01554_ sky130_fd_sc_hd__xor2_1
X_06283_ _01554_ VSS VSS VDD VDD _01557_ sky130_fd_sc_hd__inv_1
X_06284_ net431 _01334_ VSS VSS VDD VDD _01338_ sky130_fd_sc_hd__xor2_1
X_06285_ net426 _00310_ VSS VSS VDD VDD _03059_ sky130_fd_sc_hd__xnor2_1
X_06286_ net431 _00046_ _03059_ VSS VSS VDD VDD _03060_ sky130_fd_sc_hd__or3_1
X_06287_ net430 _00010_ _03060_ VSS VSS VDD VDD _03061_ sky130_fd_sc_hd__o21ai_0
X_06288_ net431 _03059_ _03061_ _01299_ VSS VSS VDD VDD _00358_
+ sky130_fd_sc_hd__a22oi_1
X_06289_ _01301_ net431 VSS VSS VDD VDD _00359_ sky130_fd_sc_hd__nand2_1
X_06290_ net429 _03044_ _00323_ VSS VSS VDD VDD _00368_ sky130_fd_sc_hd__mux2_2
X_06291_ net459 _01311_ VSS VSS VDD VDD _00369_ sky130_fd_sc_hd__nand2_1
X_06292_ _01218_ _01297_ _02902_ VSS VSS VDD VDD _03062_ sky130_fd_sc_hd__nand3_1
X_06293_ _03025_ _03062_ _03026_ VSS VSS VDD VDD _03063_ sky130_fd_sc_hd__a21oi_1
X_06294_ _01317_ _03063_ _01332_ VSS VSS VDD VDD _03064_ sky130_fd_sc_hd__o21a_1
X_06295_ _01332_ _02901_ _03045_ _03064_ VSS VSS VDD VDD _03065_
+ sky130_fd_sc_hd__a31oi_1
X_06296_ _01331_ _03065_ VSS VSS VDD VDD _03066_ sky130_fd_sc_hd__nor2b_1
X_06297_ _01351_ _03066_ VSS VSS VDD VDD _01688_ sky130_fd_sc_hd__xnor2_1
X_06298_ _01688_ VSS VSS VDD VDD _01691_ sky130_fd_sc_hd__inv_1
X_06299_ _01308_ _01325_ VSS VSS VDD VDD _03067_ sky130_fd_sc_hd__nand2_1
X_06300_ _01308_ _03028_ _01307_ VSS VSS VDD VDD _03068_ sky130_fd_sc_hd__a21o_1
X_06301_ _01325_ _03068_ _01324_ VSS VSS VDD VDD _03069_ sky130_fd_sc_hd__a21oi_1
X_06302_ _03031_ _03034_ _03067_ _03069_ VSS VSS VDD VDD _03070_
+ sky130_fd_sc_hd__o31ai_1
X_06303_ _01344_ _03070_ VSS VSS VDD VDD _01687_ sky130_fd_sc_hd__xor2_1
X_06304_ _01688_ net422 VSS VSS VDD VDD _03071_ sky130_fd_sc_hd__xnor2_1
X_06305_ _03055_ _03058_ _01686_ VSS VSS VDD VDD _03072_ sky130_fd_sc_hd__o21bai_1
X_06306_ _03071_ _03072_ VSS VSS VDD VDD _01352_ sky130_fd_sc_hd__xor2_1
X_06307_ _01352_ VSS VSS VDD VDD _01355_ sky130_fd_sc_hd__inv_1
X_06308_ _01336_ _01333_ VSS VSS VDD VDD _01357_ sky130_fd_sc_hd__or2_2
X_06309_ _01357_ VSS VSS VDD VDD _01359_ sky130_fd_sc_hd__inv_1
X_06310_ _01334_ net431 _00310_ VSS VSS VDD VDD _00379_ sky130_fd_sc_hd__mux2i_1
X_06311_ _01320_ net431 VSS VSS VDD VDD _00380_ sky130_fd_sc_hd__nand2_1
X_06312_ net459 _01366_ VSS VSS VDD VDD _01369_ sky130_fd_sc_hd__xor2_1
X_06313_ _01523_ _00144_ VSS VSS VDD VDD _03073_ sky130_fd_sc_hd__xnor2_1
X_06314_ _01205_ _00322_ VSS VSS VDD VDD _03074_ sky130_fd_sc_hd__nand2_1
X_06315_ _00322_ _01205_ VSS VSS VDD VDD _03075_ sky130_fd_sc_hd__nor2b_1
X_06316_ _03073_ _03075_ net459 VSS VSS VDD VDD _03076_ sky130_fd_sc_hd__o21ai_0
X_06317_ net459 _03073_ _03074_ _03076_ VSS VSS VDD VDD _00389_
+ sky130_fd_sc_hd__o31a_1
X_06318_ net459 _01327_ VSS VSS VDD VDD _00390_ sky130_fd_sc_hd__nand2_1
X_06319_ _01332_ _03051_ _01331_ VSS VSS VDD VDD _03077_ sky130_fd_sc_hd__a21oi_1
X_06320_ _03077_ _01351_ VSS VSS VDD VDD _03078_ sky130_fd_sc_hd__nand2b_1
X_06321_ _01375_ _01350_ VSS VSS VDD VDD _03079_ sky130_fd_sc_hd__nor2_1
X_06322_ _01332_ _03051_ _01350_ _01331_ VSS VSS VDD VDD _03080_
+ sky130_fd_sc_hd__a211oi_2
X_06323_ _01351_ _01350_ _01375_ VSS VSS VDD VDD _03081_ sky130_fd_sc_hd__o21ai_0
X_06324_ _03080_ _03081_ VSS VSS VDD VDD _03082_ sky130_fd_sc_hd__nor2_1
X_06325_ _03078_ _03079_ _03082_ VSS VSS VDD VDD _01699_ sky130_fd_sc_hd__a21oi_1
X_06326_ _01699_ VSS VSS VDD VDD _01702_ sky130_fd_sc_hd__inv_1
X_06327_ _01308_ _01307_ _01325_ VSS VSS VDD VDD _03083_ sky130_fd_sc_hd__o21a_1
X_06328_ _03052_ _03083_ _01324_ VSS VSS VDD VDD _03084_ sky130_fd_sc_hd__a21oi_1
X_06329_ net425 _03016_ _03067_ _03084_ VSS VSS VDD VDD _03085_
+ sky130_fd_sc_hd__o31ai_2
X_06330_ _01344_ _03085_ _01343_ VSS VSS VDD VDD _03086_ sky130_fd_sc_hd__a21oi_1
X_06331_ _01364_ _03086_ VSS VSS VDD VDD _03087_ sky130_fd_sc_hd__xor2_1
X_06332_ _03087_ VSS VSS VDD VDD _01698_ sky130_fd_sc_hd__inv_1
X_06333_ _01699_ _01698_ VSS VSS VDD VDD _03088_ sky130_fd_sc_hd__xnor2_1
X_06334_ _01680_ _01686_ _01692_ VSS VSS VDD VDD _03089_ sky130_fd_sc_hd__nor3_1
X_06335_ _01686_ _03055_ VSS VSS VDD VDD _03090_ sky130_fd_sc_hd__nand2b_1
X_06336_ _03071_ _03090_ _01692_ VSS VSS VDD VDD _03091_ sky130_fd_sc_hd__a21oi_1
X_06337_ _03057_ _03089_ _03091_ VSS VSS VDD VDD _03092_ sky130_fd_sc_hd__a21oi_1
X_06338_ _03088_ _03092_ VSS VSS VDD VDD _01376_ sky130_fd_sc_hd__xor2_1
X_06339_ _01376_ VSS VSS VDD VDD _01379_ sky130_fd_sc_hd__inv_1
X_06340_ net431 _01339_ VSS VSS VDD VDD _00401_ sky130_fd_sc_hd__nand2_1
X_06341_ _01368_ _01365_ VSS VSS VDD VDD _01391_ sky130_fd_sc_hd__or2_2
X_06342_ _01391_ VSS VSS VDD VDD _01393_ sky130_fd_sc_hd__inv_1
X_06343_ _01366_ net459 _00144_ VSS VSS VDD VDD _00410_ sky130_fd_sc_hd__mux2i_1
X_06344_ net459 _01346_ VSS VSS VDD VDD _00411_ sky130_fd_sc_hd__nand2_1
X_06345_ _01374_ VSS VSS VDD VDD _03093_ sky130_fd_sc_hd__inv_1
X_06346_ _01331_ _01350_ _01374_ VSS VSS VDD VDD _03094_ sky130_fd_sc_hd__nor3_1
X_06347_ _03093_ _03081_ _03094_ _03065_ VSS VSS VDD VDD _03095_
+ sky130_fd_sc_hd__a22o_1
X_06348_ _01398_ _03095_ VSS VSS VDD VDD _01710_ sky130_fd_sc_hd__xnor2_1
X_06349_ _01710_ VSS VSS VDD VDD _01713_ sky130_fd_sc_hd__inv_1
X_06350_ _03088_ _03092_ _01703_ VSS VSS VDD VDD _03096_ sky130_fd_sc_hd__a21oi_1
X_06351_ _01344_ _03070_ _01343_ VSS VSS VDD VDD _03097_ sky130_fd_sc_hd__a21o_1
X_06352_ _01364_ _03097_ _01363_ VSS VSS VDD VDD _03098_ sky130_fd_sc_hd__a21oi_2
X_06353_ _01389_ _03098_ VSS VSS VDD VDD _01709_ sky130_fd_sc_hd__xnor2_2
X_06354_ _01710_ _01709_ VSS VSS VDD VDD _03099_ sky130_fd_sc_hd__xnor2_1
X_06355_ _03096_ _03099_ VSS VSS VDD VDD _01399_ sky130_fd_sc_hd__xnor2_1
X_06356_ _01399_ VSS VSS VDD VDD _01402_ sky130_fd_sc_hd__inv_1
X_06357_ _00424_ VSS VSS VDD VDD _00420_ sky130_fd_sc_hd__inv_1
X_06358_ net459 _01370_ VSS VSS VDD VDD _00433_ sky130_fd_sc_hd__nand2_1
Xinput134 in_flat[76] VSS VSS VDD VDD net133 sky130_fd_sc_hd__clkdlybuf4s50_1
X_06360_ _01397_ VSS VSS VDD VDD _03101_ sky130_fd_sc_hd__inv_1
X_06361_ _01398_ VSS VSS VDD VDD _03102_ sky130_fd_sc_hd__inv_1
X_06362_ _03102_ _01419_ _03093_ VSS VSS VDD VDD _03103_ sky130_fd_sc_hd__nor3_1
X_06363_ _03102_ _01419_ _03101_ _03103_ VSS VSS VDD VDD _03104_
+ sky130_fd_sc_hd__a31oi_1
X_06364_ _01419_ _03101_ _03104_ VSS VSS VDD VDD _03105_ sky130_fd_sc_hd__o21ai_0
X_06365_ _03102_ _01419_ _03080_ _03081_ VSS VSS VDD VDD _03106_
+ sky130_fd_sc_hd__nor4_1
X_06366_ _03080_ _03081_ _01419_ _03093_ _03101_ VSS VSS VDD
+ VDD _03107_ sky130_fd_sc_hd__o2111ai_1
X_06367_ _03105_ _03106_ _03107_ VSS VSS VDD VDD _01724_ sky130_fd_sc_hd__nor3b_1
X_06368_ _01411_ VSS VSS VDD VDD _03108_ sky130_fd_sc_hd__inv_1
X_06369_ _01364_ _01363_ _01389_ VSS VSS VDD VDD _03109_ sky130_fd_sc_hd__o21a_1
X_06370_ _01388_ _03109_ VSS VSS VDD VDD _03110_ sky130_fd_sc_hd__nor2_1
X_06371_ _01344_ _03085_ _01388_ _01363_ _01343_ VSS VSS VDD